<?xml version="1.0" encoding="UTF-8"?>
<configuration>
    <input>
        <net-file value="cross.net.xml"/>
        <route-files value="cross.rou_kb1.xml"/>
    </input>
    <time>
        <begin value="0"/>
        <end value="3600"/>
    </time>
    
    <output>
        <tripinfo-output value="tripinfo.xml"/>
    </output>

    <processing>
        <time-to-teleport value="-1"/>
    </processing>
</configuration>
