<?xml version="1.0" encoding="UTF-8"?>

<!-- generated on 2025-06-12 22:08:05 by Eclipse SUMO netconvert Version 1.23.1
<netconvertConfiguration xmlns:xsi="http://www.w3.org/2001/XMLSchema-instance" xsi:noNamespaceSchemaLocation="http://sumo.dlr.de/xsd/netconvertConfiguration.xsd">

    <input>
        <node-files value="sumo_files/cross.nod.xml"/>
        <edge-files value="sumo_files/cross.edg.xml"/>
    </input>

    <output>
        <output-file value="sumo_files/cross.net.xml"/>
    </output>

</netconvertConfiguration>
-->

<net version="1.20" junctionCornerDetail="5" limitTurnSpeed="5.50" xmlns:xsi="http://www.w3.org/2001/XMLSchema-instance" xsi:noNamespaceSchemaLocation="http://sumo.dlr.de/xsd/net_file.xsd">

    <location netOffset="500.00,500.00" convBoundary="0.00,0.00,1000.00,1000.00" origBoundary="-500.00,-500.00,500.00,500.00" projParameter="!"/>

    <edge id=":E_0" function="internal">
        <lane id=":E_0_0" index="0" speed="3.65" length="4.67" shape="1000.00,498.40 1001.20,499.20 1001.60,500.00 1001.20,500.80 1000.00,501.60"/>
    </edge>
    <edge id=":J1_0" function="internal">
        <lane id=":J1_0_0" index="0" speed="6.51" length="9.03" shape="492.00,513.60 491.65,511.15 490.60,509.40 488.85,508.35 486.40,508.00"/>
    </edge>
    <edge id=":J1_1" function="internal">
        <lane id=":J1_1_0" index="0" speed="13.89" length="27.20" shape="492.00,513.60 492.00,486.40"/>
        <lane id=":J1_1_1" index="1" speed="13.89" length="27.20" shape="495.20,513.60 495.20,486.40"/>
        <lane id=":J1_1_2" index="2" speed="13.89" length="27.20" shape="498.40,513.60 498.40,486.40"/>
    </edge>
    <edge id=":J1_4" function="internal">
        <lane id=":J1_4_0" index="0" speed="10.36" length="5.01" shape="498.40,513.60 499.11,508.64"/>
    </edge>
    <edge id=":J1_5" function="internal">
        <lane id=":J1_5_0" index="0" speed="3.65" length="1.44" shape="498.40,513.60 499.20,512.40"/>
    </edge>
    <edge id=":J1_24" function="internal">
        <lane id=":J1_24_0" index="0" speed="10.36" length="19.50" shape="499.11,508.64 499.35,506.95 502.20,502.20 506.95,499.35 513.60,498.40"/>
    </edge>
    <edge id=":J1_25" function="internal">
        <lane id=":J1_25_0" index="0" speed="3.65" length="3.23" shape="499.20,512.40 500.00,512.00 500.80,512.40 501.60,513.60"/>
    </edge>
    <edge id=":J1_6" function="internal">
        <lane id=":J1_6_0" index="0" speed="6.51" length="9.03" shape="513.60,508.00 511.15,508.35 509.40,509.40 508.35,511.15 508.00,513.60"/>
    </edge>
    <edge id=":J1_7" function="internal">
        <lane id=":J1_7_0" index="0" speed="13.89" length="27.20" shape="513.60,508.00 486.40,508.00"/>
        <lane id=":J1_7_1" index="1" speed="13.89" length="27.20" shape="513.60,504.80 486.40,504.80"/>
        <lane id=":J1_7_2" index="2" speed="13.89" length="27.20" shape="513.60,501.60 486.40,501.60"/>
    </edge>
    <edge id=":J1_10" function="internal">
        <lane id=":J1_10_0" index="0" speed="10.36" length="5.01" shape="513.60,501.60 508.64,500.89"/>
    </edge>
    <edge id=":J1_11" function="internal">
        <lane id=":J1_11_0" index="0" speed="3.65" length="1.44" shape="513.60,501.60 512.40,500.80"/>
    </edge>
    <edge id=":J1_26" function="internal">
        <lane id=":J1_26_0" index="0" speed="10.36" length="19.50" shape="508.64,500.89 506.95,500.65 502.20,497.80 499.35,493.05 498.40,486.40"/>
    </edge>
    <edge id=":J1_27" function="internal">
        <lane id=":J1_27_0" index="0" speed="3.65" length="3.23" shape="512.40,500.80 512.00,500.00 512.40,499.20 513.60,498.40"/>
    </edge>
    <edge id=":J1_12" function="internal">
        <lane id=":J1_12_0" index="0" speed="6.51" length="9.03" shape="508.00,486.40 508.35,488.85 509.40,490.60 511.15,491.65 513.60,492.00"/>
    </edge>
    <edge id=":J1_13" function="internal">
        <lane id=":J1_13_0" index="0" speed="13.89" length="27.20" shape="508.00,486.40 508.00,513.60"/>
        <lane id=":J1_13_1" index="1" speed="13.89" length="27.20" shape="504.80,486.40 504.80,513.60"/>
        <lane id=":J1_13_2" index="2" speed="13.89" length="27.20" shape="501.60,486.40 501.60,513.60"/>
    </edge>
    <edge id=":J1_16" function="internal">
        <lane id=":J1_16_0" index="0" speed="10.36" length="5.01" shape="501.60,486.40 500.89,491.36"/>
    </edge>
    <edge id=":J1_17" function="internal">
        <lane id=":J1_17_0" index="0" speed="3.65" length="1.44" shape="501.60,486.40 500.80,487.60"/>
    </edge>
    <edge id=":J1_28" function="internal">
        <lane id=":J1_28_0" index="0" speed="10.36" length="19.50" shape="500.89,491.36 500.65,493.05 497.80,497.80 493.05,500.65 486.40,501.60"/>
    </edge>
    <edge id=":J1_29" function="internal">
        <lane id=":J1_29_0" index="0" speed="3.65" length="3.23" shape="500.80,487.60 500.00,488.00 499.20,487.60 498.40,486.40"/>
    </edge>
    <edge id=":J1_18" function="internal">
        <lane id=":J1_18_0" index="0" speed="6.51" length="9.03" shape="486.40,492.00 488.85,491.65 490.60,490.60 491.65,488.85 492.00,486.40"/>
    </edge>
    <edge id=":J1_19" function="internal">
        <lane id=":J1_19_0" index="0" speed="13.89" length="27.20" shape="486.40,492.00 513.60,492.00"/>
        <lane id=":J1_19_1" index="1" speed="13.89" length="27.20" shape="486.40,495.20 513.60,495.20"/>
        <lane id=":J1_19_2" index="2" speed="13.89" length="27.20" shape="486.40,498.40 513.60,498.40"/>
    </edge>
    <edge id=":J1_22" function="internal">
        <lane id=":J1_22_0" index="0" speed="10.36" length="5.01" shape="486.40,498.40 491.36,499.11"/>
    </edge>
    <edge id=":J1_23" function="internal">
        <lane id=":J1_23_0" index="0" speed="3.65" length="1.44" shape="486.40,498.40 487.60,499.20"/>
    </edge>
    <edge id=":J1_30" function="internal">
        <lane id=":J1_30_0" index="0" speed="10.36" length="19.50" shape="491.36,499.11 493.05,499.35 497.80,502.20 500.65,506.95 501.60,513.60"/>
    </edge>
    <edge id=":J1_31" function="internal">
        <lane id=":J1_31_0" index="0" speed="3.65" length="3.23" shape="487.60,499.20 488.00,500.00 487.60,500.80 486.40,501.60"/>
    </edge>
    <edge id=":N_0" function="internal">
        <lane id=":N_0_0" index="0" speed="3.65" length="4.67" shape="501.60,1000.00 500.80,1001.20 500.00,1001.60 499.20,1001.20 498.40,1000.00"/>
    </edge>
    <edge id=":S_0" function="internal">
        <lane id=":S_0_0" index="0" speed="3.65" length="4.67" shape="498.40,0.00 499.20,-1.20 500.00,-1.60 500.80,-1.20 501.60,0.00"/>
    </edge>
    <edge id=":W_0" function="internal">
        <lane id=":W_0_0" index="0" speed="3.65" length="4.67" shape="0.00,501.60 -1.20,500.80 -1.60,500.00 -1.20,499.20 0.00,498.40"/>
    </edge>

    <edge id="E1" from="E" to="J1" priority="1">
        <lane id="E1_0" index="0" speed="13.89" length="486.40" shape="1000.00,508.00 513.60,508.00"/>
        <lane id="E1_1" index="1" speed="13.89" length="486.40" shape="1000.00,504.80 513.60,504.80"/>
        <lane id="E1_2" index="2" speed="13.89" length="486.40" shape="1000.00,501.60 513.60,501.60"/>
    </edge>
    <edge id="J1E" from="J1" to="E" priority="1">
        <lane id="J1E_0" index="0" speed="13.89" length="486.40" shape="513.60,492.00 1000.00,492.00"/>
        <lane id="J1E_1" index="1" speed="13.89" length="486.40" shape="513.60,495.20 1000.00,495.20"/>
        <lane id="J1E_2" index="2" speed="13.89" length="486.40" shape="513.60,498.40 1000.00,498.40"/>
    </edge>
    <edge id="J1N" from="J1" to="N" priority="1">
        <lane id="J1N_0" index="0" speed="13.89" length="486.40" shape="508.00,513.60 508.00,1000.00"/>
        <lane id="J1N_1" index="1" speed="13.89" length="486.40" shape="504.80,513.60 504.80,1000.00"/>
        <lane id="J1N_2" index="2" speed="13.89" length="486.40" shape="501.60,513.60 501.60,1000.00"/>
    </edge>
    <edge id="J1S" from="J1" to="S" priority="1">
        <lane id="J1S_0" index="0" speed="13.89" length="486.40" shape="492.00,486.40 492.00,0.00"/>
        <lane id="J1S_1" index="1" speed="13.89" length="486.40" shape="495.20,486.40 495.20,0.00"/>
        <lane id="J1S_2" index="2" speed="13.89" length="486.40" shape="498.40,486.40 498.40,0.00"/>
    </edge>
    <edge id="J1W" from="J1" to="W" priority="1">
        <lane id="J1W_0" index="0" speed="13.89" length="486.40" shape="486.40,508.00 0.00,508.00"/>
        <lane id="J1W_1" index="1" speed="13.89" length="486.40" shape="486.40,504.80 0.00,504.80"/>
        <lane id="J1W_2" index="2" speed="13.89" length="486.40" shape="486.40,501.60 0.00,501.60"/>
    </edge>
    <edge id="N1" from="N" to="J1" priority="1">
        <lane id="N1_0" index="0" speed="13.89" length="486.40" shape="492.00,1000.00 492.00,513.60"/>
        <lane id="N1_1" index="1" speed="13.89" length="486.40" shape="495.20,1000.00 495.20,513.60"/>
        <lane id="N1_2" index="2" speed="13.89" length="486.40" shape="498.40,1000.00 498.40,513.60"/>
    </edge>
    <edge id="S1" from="S" to="J1" priority="1">
        <lane id="S1_0" index="0" speed="13.89" length="486.40" shape="508.00,0.00 508.00,486.40"/>
        <lane id="S1_1" index="1" speed="13.89" length="486.40" shape="504.80,0.00 504.80,486.40"/>
        <lane id="S1_2" index="2" speed="13.89" length="486.40" shape="501.60,0.00 501.60,486.40"/>
    </edge>
    <edge id="W1" from="W" to="J1" priority="1">
        <lane id="W1_0" index="0" speed="13.89" length="486.40" shape="0.00,492.00 486.40,492.00"/>
        <lane id="W1_1" index="1" speed="13.89" length="486.40" shape="0.00,495.20 486.40,495.20"/>
        <lane id="W1_2" index="2" speed="13.89" length="486.40" shape="0.00,498.40 486.40,498.40"/>
    </edge>

    <tlLogic id="J1" type="static" programID="0" offset="0">
        <phase duration="42" state="GGGGggrrrrrrGGGGggrrrrrr"/>
        <phase duration="3"  state="yyyyyyrrrrrryyyyyyrrrrrr"/>
        <phase duration="42" state="rrrrrrGGGGggrrrrrrGGGGgg"/>
        <phase duration="3"  state="rrrrrryyyyyyrrrrrryyyyyy"/>
    </tlLogic>

    <junction id="E" type="priority" x="1000.00" y="500.00" incLanes="J1E_0 J1E_1 J1E_2" intLanes=":E_0_0" shape="1000.00,500.00 1000.00,490.40 1000.00,500.00">
        <request index="0" response="0" foes="0" cont="0"/>
    </junction>
    <junction id="J1" type="traffic_light" x="500.00" y="500.00" incLanes="N1_0 N1_1 N1_2 E1_0 E1_1 E1_2 S1_0 S1_1 S1_2 W1_0 W1_1 W1_2" intLanes=":J1_0_0 :J1_1_0 :J1_1_1 :J1_1_2 :J1_24_0 :J1_25_0 :J1_6_0 :J1_7_0 :J1_7_1 :J1_7_2 :J1_26_0 :J1_27_0 :J1_12_0 :J1_13_0 :J1_13_1 :J1_13_2 :J1_28_0 :J1_29_0 :J1_18_0 :J1_19_0 :J1_19_1 :J1_19_2 :J1_30_0 :J1_31_0" shape="490.40,513.60 509.60,513.60 510.04,511.38 510.60,510.60 511.38,510.04 512.38,509.71 513.60,509.60 513.60,490.40 511.38,489.96 510.60,489.40 510.04,488.62 509.71,487.62 509.60,486.40 490.40,486.40 489.96,488.62 489.40,489.40 488.62,489.96 487.62,490.29 486.40,490.40 486.40,509.60 488.62,510.04 489.40,510.60 489.96,511.38 490.29,512.38">
        <request index="0"  response="000000000000000000000000" foes="000000000000001110000000" cont="0"/>
        <request index="1"  response="010000000000010000000000" foes="011111110000011110000000" cont="0"/>
        <request index="2"  response="010000000000010000000000" foes="011111110000011110000000" cont="0"/>
        <request index="3"  response="010000000000010000000000" foes="011111110000011110000000" cont="0"/>
        <request index="4"  response="010000001110010000000000" foes="011110001110111110000000" cont="1"/>
        <request index="5"  response="010000001110000000000000" foes="010000001110000000000000" cont="1"/>
        <request index="6"  response="000000001110000000000000" foes="000000001110000000000000" cont="0"/>
        <request index="7"  response="000000011110000000011111" foes="110000011110000000011111" cont="0"/>
        <request index="8"  response="000000011110000000011111" foes="110000011110000000011111" cont="0"/>
        <request index="9"  response="000000011110000000011111" foes="110000011110000000011111" cont="0"/>
        <request index="10" response="001110011110000000011110" foes="001110111110000000011110" cont="1"/>
        <request index="11" response="001110000000000000010000" foes="001110000000000000010000" cont="1"/>
        <request index="12" response="000000000000000000000000" foes="001110000000000000000000" cont="0"/>
        <request index="13" response="010000000000010000000000" foes="011110000000011111110000" cont="0"/>
        <request index="14" response="010000000000010000000000" foes="011110000000011111110000" cont="0"/>
        <request index="15" response="010000000000010000000000" foes="011110000000011111110000" cont="0"/>
        <request index="16" response="010000000000010000001110" foes="111110000000011110001110" cont="1"/>
        <request index="17" response="000000000000010000001110" foes="000000000000010000001110" cont="1"/>
        <request index="18" response="000000000000000000001110" foes="000000000000000000001110" cont="0"/>
        <request index="19" response="000000011111000000011110" foes="000000011111110000011110" cont="0"/>
        <request index="20" response="000000011111000000011110" foes="000000011111110000011110" cont="0"/>
        <request index="21" response="000000011111000000011110" foes="000000011111110000011110" cont="0"/>
        <request index="22" response="000000011110001110011110" foes="000000011110001110111110" cont="1"/>
        <request index="23" response="000000010000001110000000" foes="000000010000001110000000" cont="1"/>
    </junction>
    <junction id="N" type="priority" x="500.00" y="1000.00" incLanes="J1N_0 J1N_1 J1N_2" intLanes=":N_0_0" shape="500.00,1000.00 509.60,1000.00 500.00,1000.00">
        <request index="0" response="0" foes="0" cont="0"/>
    </junction>
    <junction id="S" type="priority" x="500.00" y="0.00" incLanes="J1S_0 J1S_1 J1S_2" intLanes=":S_0_0" shape="500.00,0.00 490.40,0.00 500.00,0.00">
        <request index="0" response="0" foes="0" cont="0"/>
    </junction>
    <junction id="W" type="priority" x="0.00" y="500.00" incLanes="J1W_0 J1W_1 J1W_2" intLanes=":W_0_0" shape="0.00,500.00 0.00,509.60 0.00,500.00">
        <request index="0" response="0" foes="0" cont="0"/>
    </junction>

    <junction id=":J1_24_0" type="internal" x="499.11" y="508.64" incLanes=":J1_4_0 S1_0 S1_1 S1_2" intLanes=":J1_7_0 :J1_7_1 :J1_7_2 :J1_10_0 :J1_11_0 :J1_12_0 :J1_13_0 :J1_13_1 :J1_13_2 :J1_19_0 :J1_19_1 :J1_19_2 :J1_22_0"/>
    <junction id=":J1_25_0" type="internal" x="499.20" y="512.40" incLanes=":J1_5_0 E1_0 S1_0 S1_1 S1_2 W1_2" intLanes=":J1_6_0 :J1_13_0 :J1_13_1 :J1_13_2 :J1_22_0"/>
    <junction id=":J1_26_0" type="internal" x="508.64" y="500.89" incLanes=":J1_10_0 W1_0 W1_1 W1_2" intLanes=":J1_1_0 :J1_1_1 :J1_1_2 :J1_4_0 :J1_13_0 :J1_13_1 :J1_13_2 :J1_16_0 :J1_17_0 :J1_18_0 :J1_19_0 :J1_19_1 :J1_19_2"/>
    <junction id=":J1_27_0" type="internal" x="512.40" y="500.80" incLanes=":J1_11_0 N1_2 S1_0 W1_0 W1_1 W1_2" intLanes=":J1_4_0 :J1_12_0 :J1_19_0 :J1_19_1 :J1_19_2"/>
    <junction id=":J1_28_0" type="internal" x="500.89" y="491.36" incLanes=":J1_16_0 N1_0 N1_1 N1_2" intLanes=":J1_0_0 :J1_1_0 :J1_1_1 :J1_1_2 :J1_7_0 :J1_7_1 :J1_7_2 :J1_10_0 :J1_19_0 :J1_19_1 :J1_19_2 :J1_22_0 :J1_23_0"/>
    <junction id=":J1_29_0" type="internal" x="500.80" y="487.60" incLanes=":J1_17_0 E1_2 N1_0 N1_1 N1_2 W1_0" intLanes=":J1_1_0 :J1_1_1 :J1_1_2 :J1_10_0 :J1_18_0"/>
    <junction id=":J1_30_0" type="internal" x="491.36" y="499.11" incLanes=":J1_22_0 E1_0 E1_1 E1_2" intLanes=":J1_1_0 :J1_1_1 :J1_1_2 :J1_4_0 :J1_5_0 :J1_6_0 :J1_7_0 :J1_7_1 :J1_7_2 :J1_13_0 :J1_13_1 :J1_13_2 :J1_16_0"/>
    <junction id=":J1_31_0" type="internal" x="487.60" y="499.20" incLanes=":J1_23_0 E1_0 E1_1 E1_2 N1_0 S1_2" intLanes=":J1_0_0 :J1_7_0 :J1_7_1 :J1_7_2 :J1_16_0"/>

    <connection from="E1" to="J1N" fromLane="0" toLane="0" via=":J1_6_0" tl="J1" linkIndex="6" dir="r" state="o"/>
    <connection from="E1" to="J1W" fromLane="0" toLane="0" via=":J1_7_0" tl="J1" linkIndex="7" dir="s" state="o"/>
    <connection from="E1" to="J1W" fromLane="1" toLane="1" via=":J1_7_1" tl="J1" linkIndex="8" dir="s" state="o"/>
    <connection from="E1" to="J1W" fromLane="2" toLane="2" via=":J1_7_2" tl="J1" linkIndex="9" dir="s" state="o"/>
    <connection from="E1" to="J1S" fromLane="2" toLane="2" via=":J1_10_0" tl="J1" linkIndex="10" dir="l" state="o"/>
    <connection from="E1" to="J1E" fromLane="2" toLane="2" via=":J1_11_0" tl="J1" linkIndex="11" dir="t" state="o"/>
    <connection from="J1E" to="E1" fromLane="2" toLane="2" via=":E_0_0" dir="t" state="M"/>
    <connection from="J1N" to="N1" fromLane="2" toLane="2" via=":N_0_0" dir="t" state="M"/>
    <connection from="J1S" to="S1" fromLane="2" toLane="2" via=":S_0_0" dir="t" state="M"/>
    <connection from="J1W" to="W1" fromLane="2" toLane="2" via=":W_0_0" dir="t" state="M"/>
    <connection from="N1" to="J1W" fromLane="0" toLane="0" via=":J1_0_0" tl="J1" linkIndex="0" dir="r" state="O"/>
    <connection from="N1" to="J1S" fromLane="0" toLane="0" via=":J1_1_0" tl="J1" linkIndex="1" dir="s" state="O"/>
    <connection from="N1" to="J1S" fromLane="1" toLane="1" via=":J1_1_1" tl="J1" linkIndex="2" dir="s" state="O"/>
    <connection from="N1" to="J1S" fromLane="2" toLane="2" via=":J1_1_2" tl="J1" linkIndex="3" dir="s" state="O"/>
    <connection from="N1" to="J1E" fromLane="2" toLane="2" via=":J1_4_0" tl="J1" linkIndex="4" dir="l" state="o"/>
    <connection from="N1" to="J1N" fromLane="2" toLane="2" via=":J1_5_0" tl="J1" linkIndex="5" dir="t" state="o"/>
    <connection from="S1" to="J1E" fromLane="0" toLane="0" via=":J1_12_0" tl="J1" linkIndex="12" dir="r" state="O"/>
    <connection from="S1" to="J1N" fromLane="0" toLane="0" via=":J1_13_0" tl="J1" linkIndex="13" dir="s" state="O"/>
    <connection from="S1" to="J1N" fromLane="1" toLane="1" via=":J1_13_1" tl="J1" linkIndex="14" dir="s" state="O"/>
    <connection from="S1" to="J1N" fromLane="2" toLane="2" via=":J1_13_2" tl="J1" linkIndex="15" dir="s" state="O"/>
    <connection from="S1" to="J1W" fromLane="2" toLane="2" via=":J1_16_0" tl="J1" linkIndex="16" dir="l" state="o"/>
    <connection from="S1" to="J1S" fromLane="2" toLane="2" via=":J1_17_0" tl="J1" linkIndex="17" dir="t" state="o"/>
    <connection from="W1" to="J1S" fromLane="0" toLane="0" via=":J1_18_0" tl="J1" linkIndex="18" dir="r" state="o"/>
    <connection from="W1" to="J1E" fromLane="0" toLane="0" via=":J1_19_0" tl="J1" linkIndex="19" dir="s" state="o"/>
    <connection from="W1" to="J1E" fromLane="1" toLane="1" via=":J1_19_1" tl="J1" linkIndex="20" dir="s" state="o"/>
    <connection from="W1" to="J1E" fromLane="2" toLane="2" via=":J1_19_2" tl="J1" linkIndex="21" dir="s" state="o"/>
    <connection from="W1" to="J1N" fromLane="2" toLane="2" via=":J1_22_0" tl="J1" linkIndex="22" dir="l" state="o"/>
    <connection from="W1" to="J1W" fromLane="2" toLane="2" via=":J1_23_0" tl="J1" linkIndex="23" dir="t" state="o"/>

    <connection from=":E_0" to="E1" fromLane="0" toLane="2" dir="t" state="M"/>
    <connection from=":J1_0" to="J1W" fromLane="0" toLane="0" dir="r" state="M"/>
    <connection from=":J1_1" to="J1S" fromLane="0" toLane="0" dir="s" state="M"/>
    <connection from=":J1_1" to="J1S" fromLane="1" toLane="1" dir="s" state="M"/>
    <connection from=":J1_1" to="J1S" fromLane="2" toLane="2" dir="s" state="M"/>
    <connection from=":J1_4" to="J1E" fromLane="0" toLane="2" via=":J1_24_0" dir="l" state="m"/>
    <connection from=":J1_24" to="J1E" fromLane="0" toLane="2" dir="l" state="M"/>
    <connection from=":J1_5" to="J1N" fromLane="0" toLane="2" via=":J1_25_0" dir="t" state="m"/>
    <connection from=":J1_25" to="J1N" fromLane="0" toLane="2" dir="t" state="M"/>
    <connection from=":J1_6" to="J1N" fromLane="0" toLane="0" dir="r" state="M"/>
    <connection from=":J1_7" to="J1W" fromLane="0" toLane="0" dir="s" state="M"/>
    <connection from=":J1_7" to="J1W" fromLane="1" toLane="1" dir="s" state="M"/>
    <connection from=":J1_7" to="J1W" fromLane="2" toLane="2" dir="s" state="M"/>
    <connection from=":J1_10" to="J1S" fromLane="0" toLane="2" via=":J1_26_0" dir="l" state="m"/>
    <connection from=":J1_26" to="J1S" fromLane="0" toLane="2" dir="l" state="M"/>
    <connection from=":J1_11" to="J1E" fromLane="0" toLane="2" via=":J1_27_0" dir="t" state="m"/>
    <connection from=":J1_27" to="J1E" fromLane="0" toLane="2" dir="t" state="M"/>
    <connection from=":J1_12" to="J1E" fromLane="0" toLane="0" dir="r" state="M"/>
    <connection from=":J1_13" to="J1N" fromLane="0" toLane="0" dir="s" state="M"/>
    <connection from=":J1_13" to="J1N" fromLane="1" toLane="1" dir="s" state="M"/>
    <connection from=":J1_13" to="J1N" fromLane="2" toLane="2" dir="s" state="M"/>
    <connection from=":J1_16" to="J1W" fromLane="0" toLane="2" via=":J1_28_0" dir="l" state="m"/>
    <connection from=":J1_28" to="J1W" fromLane="0" toLane="2" dir="l" state="M"/>
    <connection from=":J1_17" to="J1S" fromLane="0" toLane="2" via=":J1_29_0" dir="t" state="m"/>
    <connection from=":J1_29" to="J1S" fromLane="0" toLane="2" dir="t" state="M"/>
    <connection from=":J1_18" to="J1S" fromLane="0" toLane="0" dir="r" state="M"/>
    <connection from=":J1_19" to="J1E" fromLane="0" toLane="0" dir="s" state="M"/>
    <connection from=":J1_19" to="J1E" fromLane="1" toLane="1" dir="s" state="M"/>
    <connection from=":J1_19" to="J1E" fromLane="2" toLane="2" dir="s" state="M"/>
    <connection from=":J1_22" to="J1N" fromLane="0" toLane="2" via=":J1_30_0" dir="l" state="m"/>
    <connection from=":J1_30" to="J1N" fromLane="0" toLane="2" dir="l" state="M"/>
    <connection from=":J1_23" to="J1W" fromLane="0" toLane="2" via=":J1_31_0" dir="t" state="m"/>
    <connection from=":J1_31" to="J1W" fromLane="0" toLane="2" dir="t" state="M"/>
    <connection from=":N_0" to="N1" fromLane="0" toLane="2" dir="t" state="M"/>
    <connection from=":S_0" to="S1" fromLane="0" toLane="2" dir="t" state="M"/>
    <connection from=":W_0" to="W1" fromLane="0" toLane="2" dir="t" state="M"/>

</net>
