<?xml version="1.0" encoding="UTF-8"?>
<routes>
    <vType id="car" accel="2.6" decel="4.5" sigma="0.5" length="5" maxSpeed="13.89" color="1,1,0"/>
    <vType id="truck" accel="1.0" decel="3.0" sigma="0.5" length="15" maxSpeed="11.11" color="0,1,0"/>
    <vType id="motorcycle" accel="3.0" decel="4.0" sigma="0.5" length="2.5" maxSpeed="16.67" color="1,0,0"/>


    <route id="route_EW" edges="E1 J1W"/>
    <route id="route_WE" edges="W1 J1E"/>
    <route id="route_NS" edges="N1 J1S"/>
    <route id="route_SN" edges="S1 J1N"/>

    <route id="route_E_turn_left" edges="E1 J1N"/>
    <route id="route_E_turn_right" edges="E1 J1S"/>

    <route id="route_W_turn_left" edges="W1 J1S"/>
    <route id="route_W_turn_right" edges="W1 J1N"/>

    <route id="route_N_turn_left" edges="N1 J1E"/>
    <route id="route_N_turn_right" edges="N1 J1W"/>

    <route id="route_S_turn_left" edges="S1 J1W"/>
    <route id="route_S_turn_right" edges="S1 J1E"/>


    <flow id="flow_straight_EW" type="car" route="route_EW" begin="0" end="3600" vehsPerHour="350"/>
    <flow id="flow_straight_WE" type="car" route="route_WE" begin="0" end="3600" vehsPerHour="350"/>
    <flow id="flow_straight_NS" type="car" route="route_NS" begin="0" end="3600" vehsPerHour="100"/>
    <flow id="flow_straight_SN" type="car" route="route_SN" begin="0" end="3600" vehsPerHour="100"/>
    <flow id="flow_E_left" type="car" route="route_E_turn_left" begin="0" end="3600" vehsPerHour="200"/>
    <flow id="flow_E_right" type="car" route="route_E_turn_right" begin="0" end="3600" vehsPerHour="250"/>
    <flow id="flow_N_left" type="car" route="route_N_turn_left" begin="0" end="3600" vehsPerHour="110"/>
    <flow id="flow_N_right" type="car" route="route_N_turn_right" begin="0" end="3600" vehsPerHour="150"/>

    <flow id="flow_EW_truck" type="truck" route="route_EW" begin="0" end="3600" vehsPerHour="60"/>
    <flow id="flow_WE_truck" type="truck" route="route_WE" begin="0" end="3600" vehsPerHour="60"/>
    <flow id="flow_NS_truck" type="truck" route="route_NS" begin="0" end="3600" vehsPerHour="20"/>
    <flow id="flow_SN_truck" type="truck" route="route_SN" begin="0" end="3600" vehsPerHour="20"/>
    <flow id="flow_E_left_truck" type="truck" route="route_E_turn_left" begin="0" end="3600" vehsPerHour="20"/>
    <flow id="flow_E_right_truck" type="truck" route="route_E_turn_right" begin="0" end="3600" vehsPerHour="20"/>
    <flow id="flow_N_left_truck" type="truck" route="route_N_turn_left" begin="0" end="3600" vehsPerHour="15"/>
    <flow id="flow_N_right_truck" type="truck" route="route_N_turn_right" begin="0" end="3600" vehsPerHour="15"/>

    <flow id="flow_EW_motorcycle" type="motorcycle" route="route_EW" begin="0" end="3600" vehsPerHour="100"/>
    <flow id="flow_WE_motorcycle" type="motorcycle" route="route_WE" begin="0" end="3600" vehsPerHour="100"/>
    <flow id="flow_NS_motorcycle" type="motorcycle" route="route_NS" begin="0" end="3600" vehsPerHour="50"/>
    <flow id="flow_SN_motorcycle" type="motorcycle" route="route_SN" begin="0" end="3600" vehsPerHour="50"/>
    <flow id="flow_E_left_motorcycle" type="motorcycle" route="route_E_turn_left" begin="0" end="3600" vehsPerHour="60"/>
    <flow id="flow_E_right_motorcycle" type="motorcycle" route="route_E_turn_right" begin="0" end="3600" vehsPerHour="60"/>
    <flow id="flow_N_left_motorcycle" type="motorcycle" route="route_N_turn_left" begin="0" end="3600" vehsPerHour="30"/>
    <flow id="flow_S_right_motorcycle" type="motorcycle" route="route_S_turn_right" begin="0" end="3600" vehsPerHour="20"/>
    <flow id="flow_W_left_motorcycle" type="motorcycle" route="route_W_turn_left" begin="0" end="3600" vehsPerHour="30"/>
    <flow id="flow_W_right_motorcycle" type="motorcycle" route="route_W_turn_right" begin="0" end="3600" vehsPerHour="20"/>

</routes>